/*---------------------------------------------------------------------------*\
| =========                 |                                                 |
| \\      /  F ield         | OpenFOAM: The Open Source CFD Toolbox           |
|  \\    /   O peration     | Version:  2206                                  |
|   \\  /    A nd           | Website:  www.openfoam.com                      |
|    \\/     M anipulation  |                                                 |
\*---------------------------------------------------------------------------*/
Build  : _76d719d1e6-20220624 OPENFOAM=2206 version=v2206
Arch   : "LSB;label=32;scalar=64"
Exec   : topoSet
Date   : Nov 14 2022
Time   : 17:15:14
Host   : cl7n012
PID    : 223312
I/O    : uncollated
Case   : /.fsdyn_people/puigmont9e/calcul/home/OpenFOAM/puigmont9e-v1906/src/SedFoamDila_V4/tutorialsDyM/2DBulldozer
nProcs : 1
trapFpe: Floating point exception trapping enabled (FOAM_SIGFPE).
fileModificationChecking : Monitoring run-time modified files using timeStampMaster (fileModificationSkew 5, maxFileModificationPolls 20)
allowSystemOperations : Allowing user-supplied system call operations

// * * * * * * * * * * * * * * * * * * * * * * * * * * * * * * * * * * * * * //
Create time

Create polyMesh for time = 0

Reading topoSetDict

Time = 0
    mesh not changed.
Created cellSet c0
    Applying source regionsToCell
    Adding all cells of connected region containing points 1((0.13 0.01 0.001)) ...
    Found location (0.13 0.01 0.001) in cell 7719 on processor 0 in global region 0 out of 2 regions.
    cellSet c0 now size 32000
Created cellSet c1
    Applying source cellToCell
    Adding all elements of cellSet (c0)
    cellSet c1 now size 32000
Read set cellSet c1 size:32000
    Inverting cellSet
    cellSet c1 now size 2400
Created cellSet c2
    Applying source regionsToCell
    Adding all cells of connected region containing points 1((0.17 0 0.001)) ...
    Loading subset c1 to delimit search region.
    Found location (0.17 0 0.001) in cell 32000 on processor 0 in global region 1 out of 2 regions.
    cellSet c2 now size 2400
Read set cellSet c1 size:2400
    Applying source cellToCell
    Removing all elements of cellSet (c2)
    cellSet c1 now size 0
Created cellSet box
    Applying source cellToCell
    Adding all elements of cellSet (c1)
    cellSet box now size 0
Read set cellSet box size:0
    Applying source cellToCell
    Adding all elements of cellSet (c2)
    cellSet box now size 2400
Read set cellSet box size:2400
    Applying source boxToCell
    Adding cells with centre within boxes 1((0.175 0.002 -100) (0.185 0.025 100))
    cellSet box now size 920
Read set cellSet box size:920
    Inverting cellSet
    cellSet box now size 33480

End

